<?xml version="1.0" encoding="UTF-8"?>
<!-- generated on 2019-04-25 21:10:36.323166 by $Id$
  options: -n map.net.xml -e 98 -l <doubleminus>trip-attributes=departLane="best" departSpeed="max" departPos="random_free" -o trip.trips.xml
-->
<routes xmlns:xsi="http://www.w3.org/2001/XMLSchema-instance" xsi:noNamespaceSchemaLocation="http://sumo.dlr.de/xsd/routes_file.xsd">
    <trip id="0" depart="0.00" from="2/3to3/3" to="3/2to3/1" departLane="best" departSpeed="max" departPos="random_free"/>
    <trip id="1" depart="1.00" from="3/0to3/1" to="0/3to0/2" departLane="best" departSpeed="max" departPos="random_free"/>
    <trip id="2" depart="2.00" from="0/3to0/2" to="3/1to3/0" departLane="best" departSpeed="max" departPos="random_free"/>
    <trip id="3" depart="3.00" from="1/2to2/2" to="2/2to1/2" departLane="best" departSpeed="max" departPos="random_free"/>
    <trip id="4" depart="4.00" from="0/0to0/1" to="1/2to1/3" departLane="best" departSpeed="max" departPos="random_free"/>
    <trip id="5" depart="5.00" from="1/1to1/2" to="3/2to3/3" departLane="best" departSpeed="max" departPos="random_free"/>
    <trip id="6" depart="6.00" from="0/0to0/1" to="1/3to1/2" departLane="best" departSpeed="max" departPos="random_free"/>
    <trip id="7" depart="7.00" from="1/2to1/3" to="1/2to2/2" departLane="best" departSpeed="max" departPos="random_free"/>
    <trip id="8" depart="8.00" from="1/2to2/2" to="2/0to1/0" departLane="best" departSpeed="max" departPos="random_free"/>
    <trip id="9" depart="9.00" from="1/1to0/1" to="0/3to0/2" departLane="best" departSpeed="max" departPos="random_free"/>
    <trip id="10" depart="10.00" from="3/0to2/0" to="2/3to2/2" departLane="best" departSpeed="max" departPos="random_free"/>
    <trip id="11" depart="11.00" from="2/1to3/1" to="2/0to3/0" departLane="best" departSpeed="max" departPos="random_free"/>
    <trip id="12" depart="12.00" from="2/2to2/3" to="2/2to3/2" departLane="best" departSpeed="max" departPos="random_free"/>
    <trip id="13" depart="13.00" from="3/2to3/3" to="3/3to3/2" departLane="best" departSpeed="max" departPos="random_free"/>
    <trip id="14" depart="14.00" from="2/1to2/2" to="3/2to3/3" departLane="best" departSpeed="max" departPos="random_free"/>
    <trip id="15" depart="15.00" from="2/0to3/0" to="2/3to2/2" departLane="best" departSpeed="max" departPos="random_free"/>
    <trip id="16" depart="16.00" from="2/3to3/3" to="1/1to0/1" departLane="best" departSpeed="max" departPos="random_free"/>
    <trip id="17" depart="17.00" from="0/1to0/0" to="1/1to0/1" departLane="best" departSpeed="max" departPos="random_free"/>
    <trip id="18" depart="18.00" from="0/1to1/1" to="1/3to2/3" departLane="best" departSpeed="max" departPos="random_free"/>
    <trip id="19" depart="19.00" from="1/2to0/2" to="1/2to0/2" departLane="best" departSpeed="max" departPos="random_free"/>
    <trip id="20" depart="20.00" from="0/2to1/2" to="1/2to0/2" departLane="best" departSpeed="max" departPos="random_free"/>
    <trip id="21" depart="21.00" from="2/2to2/3" to="1/3to1/2" departLane="best" departSpeed="max" departPos="random_free"/>
    <trip id="22" depart="22.00" from="3/3to3/2" to="3/3to3/2" departLane="best" departSpeed="max" departPos="random_free"/>
    <trip id="23" depart="23.00" from="0/3to0/2" to="2/1to3/1" departLane="best" departSpeed="max" departPos="random_free"/>
    <trip id="24" depart="24.00" from="1/2to1/1" to="2/2to1/2" departLane="best" departSpeed="max" departPos="random_free"/>
    <trip id="25" depart="25.00" from="2/3to2/2" to="2/0to2/1" departLane="best" departSpeed="max" departPos="random_free"/>
    <trip id="26" depart="26.00" from="1/0to2/0" to="1/1to1/0" departLane="best" departSpeed="max" departPos="random_free"/>
    <trip id="27" depart="27.00" from="1/3to1/2" to="0/1to0/2" departLane="best" departSpeed="max" departPos="random_free"/>
    <trip id="28" depart="28.00" from="2/1to3/1" to="2/3to1/3" departLane="best" departSpeed="max" departPos="random_free"/>
    <trip id="29" depart="29.00" from="2/3to2/2" to="1/1to1/0" departLane="best" departSpeed="max" departPos="random_free"/>
    <trip id="30" depart="30.00" from="2/1to2/0" to="2/3to1/3" departLane="best" departSpeed="max" departPos="random_free"/>
    <trip id="31" depart="31.00" from="3/2to3/3" to="1/1to0/1" departLane="best" departSpeed="max" departPos="random_free"/>
    <trip id="32" depart="32.00" from="3/3to3/2" to="1/1to1/0" departLane="best" departSpeed="max" departPos="random_free"/>
    <trip id="33" depart="33.00" from="0/0to1/0" to="1/1to0/1" departLane="best" departSpeed="max" departPos="random_free"/>
    <trip id="34" depart="34.00" from="0/1to0/0" to="2/2to3/2" departLane="best" departSpeed="max" departPos="random_free"/>
    <trip id="35" depart="35.00" from="1/1to0/1" to="0/2to0/1" departLane="best" departSpeed="max" departPos="random_free"/>
    <trip id="36" depart="36.00" from="2/2to2/3" to="3/0to3/1" departLane="best" departSpeed="max" departPos="random_free"/>
    <trip id="37" depart="37.00" from="1/2to1/1" to="1/3to1/2" departLane="best" departSpeed="max" departPos="random_free"/>
    <trip id="38" depart="38.00" from="1/1to2/1" to="2/3to1/3" departLane="best" departSpeed="max" departPos="random_free"/>
    <trip id="39" depart="39.00" from="2/2to2/1" to="1/1to1/0" departLane="best" departSpeed="max" departPos="random_free"/>
    <trip id="40" depart="40.00" from="1/1to0/1" to="3/3to2/3" departLane="best" departSpeed="max" departPos="random_free"/>
    <trip id="41" depart="41.00" from="2/0to1/0" to="0/0to1/0" departLane="best" departSpeed="max" departPos="random_free"/>
    <trip id="42" depart="42.00" from="3/2to3/3" to="1/1to2/1" departLane="best" departSpeed="max" departPos="random_free"/>
    <trip id="43" depart="43.00" from="2/1to2/2" to="0/2to1/2" departLane="best" departSpeed="max" departPos="random_free"/>
    <trip id="44" depart="44.00" from="1/0to0/0" to="2/2to2/3" departLane="best" departSpeed="max" departPos="random_free"/>
    <trip id="45" depart="45.00" from="2/2to2/1" to="1/1to1/0" departLane="best" departSpeed="max" departPos="random_free"/>
    <trip id="46" depart="46.00" from="2/2to2/1" to="3/0to2/0" departLane="best" departSpeed="max" departPos="random_free"/>
    <trip id="47" depart="47.00" from="1/1to1/0" to="0/1to1/1" departLane="best" departSpeed="max" departPos="random_free"/>
    <trip id="48" depart="48.00" from="1/1to1/0" to="3/3to3/2" departLane="best" departSpeed="max" departPos="random_free"/>
    <trip id="49" depart="49.00" from="2/0to2/1" to="2/3to2/2" departLane="best" departSpeed="max" departPos="random_free"/>
    <trip id="50" depart="50.00" from="3/2to2/2" to="0/1to1/1" departLane="best" departSpeed="max" departPos="random_free"/>
    <trip id="51" depart="51.00" from="1/2to1/3" to="1/2to0/2" departLane="best" departSpeed="max" departPos="random_free"/>
    <trip id="52" depart="52.00" from="2/2to2/1" to="0/2to0/3" departLane="best" departSpeed="max" departPos="random_free"/>
    <trip id="53" depart="53.00" from="2/1to2/2" to="3/0to2/0" departLane="best" departSpeed="max" departPos="random_free"/>
    <trip id="54" depart="54.00" from="2/1to3/1" to="1/2to0/2" departLane="best" departSpeed="max" departPos="random_free"/>
    <trip id="55" depart="55.00" from="0/0to1/0" to="2/1to1/1" departLane="best" departSpeed="max" departPos="random_free"/>
    <trip id="56" depart="56.00" from="3/1to3/2" to="0/2to0/1" departLane="best" departSpeed="max" departPos="random_free"/>
    <trip id="57" depart="57.00" from="2/0to3/0" to="2/0to3/0" departLane="best" departSpeed="max" departPos="random_free"/>
    <trip id="58" depart="58.00" from="1/0to1/1" to="2/1to1/1" departLane="best" departSpeed="max" departPos="random_free"/>
    <trip id="59" depart="59.00" from="3/1to3/2" to="2/2to2/3" departLane="best" departSpeed="max" departPos="random_free"/>
    <trip id="60" depart="60.00" from="3/3to2/3" to="0/1to0/0" departLane="best" departSpeed="max" departPos="random_free"/>
    <trip id="61" depart="61.00" from="2/0to1/0" to="2/2to1/2" departLane="best" departSpeed="max" departPos="random_free"/>
    <trip id="62" depart="62.00" from="3/1to2/1" to="3/3to2/3" departLane="best" departSpeed="max" departPos="random_free"/>
    <trip id="63" depart="63.00" from="1/1to1/2" to="3/0to2/0" departLane="best" departSpeed="max" departPos="random_free"/>
    <trip id="64" depart="64.00" from="1/2to0/2" to="1/1to0/1" departLane="best" departSpeed="max" departPos="random_free"/>
    <trip id="65" depart="65.00" from="2/3to3/3" to="3/2to2/2" departLane="best" departSpeed="max" departPos="random_free"/>
    <trip id="66" depart="66.00" from="1/0to0/0" to="0/1to0/0" departLane="best" departSpeed="max" departPos="random_free"/>
    <trip id="67" depart="67.00" from="0/2to1/2" to="0/3to1/3" departLane="best" departSpeed="max" departPos="random_free"/>
    <trip id="68" depart="68.00" from="1/0to2/0" to="1/3to2/3" departLane="best" departSpeed="max" departPos="random_free"/>
    <trip id="69" depart="69.00" from="2/2to2/1" to="3/0to3/1" departLane="best" departSpeed="max" departPos="random_free"/>
    <trip id="70" depart="70.00" from="2/1to3/1" to="2/2to1/2" departLane="best" departSpeed="max" departPos="random_free"/>
    <trip id="71" depart="71.00" from="0/1to0/0" to="3/0to2/0" departLane="best" departSpeed="max" departPos="random_free"/>
    <trip id="72" depart="72.00" from="0/3to0/2" to="1/3to2/3" departLane="best" departSpeed="max" departPos="random_free"/>
    <trip id="73" depart="73.00" from="0/1to0/2" to="3/1to3/2" departLane="best" departSpeed="max" departPos="random_free"/>
    <trip id="74" depart="74.00" from="2/2to2/1" to="0/3to1/3" departLane="best" departSpeed="max" departPos="random_free"/>
    <trip id="75" depart="75.00" from="1/1to1/0" to="1/1to1/0" departLane="best" departSpeed="max" departPos="random_free"/>
    <trip id="76" depart="76.00" from="2/2to3/2" to="0/0to1/0" departLane="best" departSpeed="max" departPos="random_free"/>
    <trip id="77" depart="77.00" from="2/0to2/1" to="1/0to1/1" departLane="best" departSpeed="max" departPos="random_free"/>
    <trip id="78" depart="78.00" from="0/2to0/1" to="1/3to1/2" departLane="best" departSpeed="max" departPos="random_free"/>
    <trip id="79" depart="79.00" from="3/0to2/0" to="2/0to2/1" departLane="best" departSpeed="max" departPos="random_free"/>
    <trip id="80" depart="80.00" from="1/3to1/2" to="2/3to3/3" departLane="best" departSpeed="max" departPos="random_free"/>
    <trip id="81" depart="81.00" from="3/2to2/2" to="0/1to1/1" departLane="best" departSpeed="max" departPos="random_free"/>
    <trip id="82" depart="82.00" from="1/0to1/1" to="1/2to0/2" departLane="best" departSpeed="max" departPos="random_free"/>
    <trip id="83" depart="83.00" from="3/0to3/1" to="3/2to2/2" departLane="best" departSpeed="max" departPos="random_free"/>
    <trip id="84" depart="84.00" from="2/3to1/3" to="1/2to2/2" departLane="best" departSpeed="max" departPos="random_free"/>
    <trip id="85" depart="85.00" from="0/0to1/0" to="3/1to3/2" departLane="best" departSpeed="max" departPos="random_free"/>
    <trip id="86" depart="86.00" from="3/0to3/1" to="1/2to1/3" departLane="best" departSpeed="max" departPos="random_free"/>
    <trip id="87" depart="87.00" from="2/2to2/1" to="1/2to1/3" departLane="best" departSpeed="max" departPos="random_free"/>
    <trip id="88" depart="88.00" from="0/2to0/3" to="1/3to2/3" departLane="best" departSpeed="max" departPos="random_free"/>
    <trip id="89" depart="89.00" from="1/1to2/1" to="2/1to2/2" departLane="best" departSpeed="max" departPos="random_free"/>
    <trip id="90" depart="90.00" from="3/1to3/0" to="2/1to3/1" departLane="best" departSpeed="max" departPos="random_free"/>
    <trip id="91" depart="91.00" from="2/1to1/1" to="2/0to1/0" departLane="best" departSpeed="max" departPos="random_free"/>
    <trip id="92" depart="92.00" from="0/1to1/1" to="3/2to2/2" departLane="best" departSpeed="max" departPos="random_free"/>
    <trip id="93" depart="93.00" from="2/1to2/0" to="2/1to3/1" departLane="best" departSpeed="max" departPos="random_free"/>
    <trip id="94" depart="94.00" from="1/1to0/1" to="2/2to2/1" departLane="best" departSpeed="max" departPos="random_free"/>
    <trip id="95" depart="95.00" from="1/0to1/1" to="0/2to0/1" departLane="best" departSpeed="max" departPos="random_free"/>
    <trip id="96" depart="96.00" from="1/0to0/0" to="3/2to3/1" departLane="best" departSpeed="max" departPos="random_free"/>
    <trip id="97" depart="97.00" from="0/1to1/1" to="0/2to1/2" departLane="best" departSpeed="max" departPos="random_free"/>
</routes>
